Version 4
SHEET 1 1424 704
WIRE 64 -896 -416 -896
WIRE 208 -896 144 -896
WIRE 256 -896 208 -896
WIRE 384 -896 320 -896
WIRE 448 -896 384 -896
WIRE 704 -896 528 -896
WIRE 800 -896 704 -896
WIRE 976 -896 800 -896
WIRE 1072 -896 976 -896
WIRE 1200 -896 1072 -896
WIRE 384 -864 384 -896
WIRE 1200 -864 1200 -896
WIRE 704 -848 704 -896
WIRE 800 -848 800 -896
WIRE 976 -848 976 -896
WIRE 1072 -848 1072 -896
WIRE 384 -752 384 -800
WIRE 976 -752 976 -784
WIRE 1072 -752 1072 -784
WIRE 1200 -752 1200 -784
WIRE 704 -720 704 -768
WIRE 704 -720 624 -720
WIRE 800 -720 800 -784
WIRE 800 -720 704 -720
WIRE 208 -624 208 -896
WIRE 208 -624 -160 -624
WIRE 624 -624 624 -720
WIRE 656 -624 624 -624
WIRE 656 -592 656 -624
WIRE -416 -480 -416 -896
WIRE 80 -480 -416 -480
WIRE 208 -480 160 -480
WIRE 256 -480 208 -480
WIRE 400 -480 320 -480
WIRE 480 -480 400 -480
WIRE 704 -480 544 -480
WIRE 800 -480 704 -480
WIRE 976 -480 800 -480
WIRE 1072 -480 976 -480
WIRE 1200 -480 1072 -480
WIRE 400 -448 400 -480
WIRE 1200 -448 1200 -480
WIRE 704 -432 704 -480
WIRE 800 -432 800 -480
WIRE 976 -432 976 -480
WIRE 1072 -432 1072 -480
WIRE 976 -336 976 -368
WIRE 1072 -336 1072 -368
WIRE 1200 -336 1200 -368
WIRE 400 -320 400 -368
WIRE 704 -304 704 -352
WIRE 800 -304 800 -368
WIRE 800 -304 704 -304
WIRE 208 -176 208 -480
WIRE 400 -176 208 -176
WIRE 400 144 400 -176
WIRE -416 192 -416 -480
WIRE -416 192 -576 192
WIRE 32 192 -416 192
WIRE 224 208 160 208
WIRE 704 208 704 -304
WIRE 704 208 560 208
WIRE -416 224 -416 192
WIRE 704 224 704 208
WIRE -576 272 -576 192
WIRE 656 272 656 -512
WIRE 656 272 560 272
WIRE -416 320 -416 288
WIRE 32 336 32 192
WIRE 160 336 160 208
WIRE 160 336 32 336
WIRE 224 336 160 336
WIRE 656 336 656 272
WIRE 656 336 560 336
WIRE 704 336 704 304
WIRE 32 368 32 336
WIRE -576 384 -576 352
WIRE 800 400 560 400
WIRE 160 464 160 336
WIRE 224 464 160 464
WIRE 624 464 624 -624
WIRE 624 464 560 464
WIRE 32 480 32 432
WIRE 656 544 656 336
WIRE -160 592 -160 -624
WIRE 480 592 480 528
WIRE 480 592 -160 592
WIRE 800 608 800 400
WIRE 304 688 304 528
WIRE 656 688 656 608
FLAG 304 688 0
FLAG -576 384 0
FLAG 800 608 0
FLAG 656 688 0
FLAG -416 320 0
FLAG 32 480 0
FLAG 400 -320 0
FLAG 976 -336 0
FLAG 1072 -336 0
FLAG 384 -752 0
FLAG 976 -752 0
FLAG 1072 -752 0
FLAG 704 336 0
FLAG 1072 -480 +10V
FLAG 1072 -896 -10V
FLAG 1200 -752 0
FLAG 1200 -336 0
FLAG -576 192 VIN
SYMBOL PowerProducts/LT3471 400 336 R0
SYMATTR InstName U1
SYMBOL voltage -576 256 R0
SYMATTR InstName V1
SYMATTR Value 13.6
SYMBOL cap -432 224 R0
SYMATTR InstName C1
SYMATTR Value 22µ
SYMATTR SpiceLine Rser=0 Lser=0 mfg="Murata" pn="GCM32ER71C226ME19" type="X7R"
SYMBOL res 688 -448 R0
SYMATTR InstName R1
SYMATTR Value 20k
SYMBOL cap 640 544 R0
SYMATTR InstName C2
SYMATTR Value 100n
SYMATTR SpiceLine Rser=16.9m Lser=332p mfg="Würth Elektronik" pn="885012205037 WCAP-CSGP 0402" type="X7R"
SYMBOL cap 16 368 R0
SYMATTR InstName C3
SYMATTR Value 22µ
SYMATTR SpiceLine Rser=0 Lser=0 mfg="Murata" pn="GCM32ER71C226ME19" type="X7R"
SYMBOL cap 816 -368 R180
WINDOW 0 24 56 Left 2
WINDOW 3 24 8 Left 2
SYMATTR InstName C5
SYMATTR Value 150p
SYMATTR SpiceLine Rser=110.8m Lser=560p mfg="Würth Elektronik" pn="885012006024 WCAP-CSGP 0603" type="NP0"
SYMBOL cap 992 -368 R180
WINDOW 0 24 56 Left 2
WINDOW 3 24 8 Left 2
SYMATTR InstName C6
SYMATTR Value 22µ
SYMATTR SpiceLine Rser=0 Lser=0 mfg="Murata" pn="GCM32ER71C226ME19" type="X7R"
SYMBOL cap 1088 -368 R180
WINDOW 0 24 56 Left 2
WINDOW 3 24 8 Left 2
SYMATTR InstName C7
SYMATTR Value 10n
SYMATTR SpiceLine Rser=55.4m Lser=199p mfg="Würth Elektronik" pn="885012205031 WCAP-CSGP 0402" type="X7R"
SYMBOL schottky 368 -864 R0
SYMATTR InstName D2
SYMATTR Value MBRS130L
SYMBOL res 688 -864 R0
SYMATTR InstName R2
SYMATTR Value 22k
SYMBOL cap 816 -784 R180
WINDOW 0 24 56 Left 2
WINDOW 3 24 8 Left 2
SYMATTR InstName C9
SYMATTR Value 150p
SYMATTR SpiceLine Rser=110.8m Lser=560p mfg="Würth Elektronik" pn="885012006024 WCAP-CSGP 0603" type="NP0"
SYMBOL cap 992 -784 R180
WINDOW 0 24 56 Left 2
WINDOW 3 24 8 Left 2
SYMATTR InstName C10
SYMATTR Value 22µ
SYMATTR SpiceLine Rser=0 Lser=0 mfg="Murata" pn="GCM32ER71C226ME19" type="X7R"
SYMBOL cap 1088 -784 R180
WINDOW 0 24 56 Left 2
WINDOW 3 24 8 Left 2
SYMATTR InstName C11
SYMATTR Value 10n
SYMATTR SpiceLine Rser=55.4m Lser=199p mfg="Würth Elektronik" pn="885012205031 WCAP-CSGP 0402" type="X7R"
SYMBOL res 688 208 R0
SYMATTR InstName R3
SYMATTR Value 2k05
SYMBOL res 640 -608 R0
SYMATTR InstName R4
SYMATTR Value 2k05
SYMBOL schottky 480 -464 R270
WINDOW 0 32 32 VTop 2
WINDOW 3 0 32 VBottom 2
SYMATTR InstName D1
SYMATTR Value MBRS130L
SYMBOL res 1184 -880 R0
SYMATTR InstName R5
SYMATTR Value 135
SYMBOL res 1184 -464 R0
SYMATTR InstName R6
SYMATTR Value 95
SYMBOL cap 320 -496 R90
WINDOW 0 0 32 VBottom 2
WINDOW 3 32 32 VTop 2
SYMATTR InstName C4
SYMATTR Value 22µ
SYMATTR SpiceLine Rser=0 Lser=0 mfg="Murata" pn="GCM32ER71C226ME19" type="X7R"
SYMBOL ind 336 -1056 M270
WINDOW 0 32 56 VTop 2
WINDOW 3 5 56 VBottom 2
SYMATTR InstName L1
SYMATTR Value 10µ
SYMATTR SpiceLine Ipk=3 Rser=84m Rpar=942 Cpar=0 mfg="Coilcraft" pn="XAL4040-103"
SYMBOL cap 320 -912 R90
WINDOW 0 0 32 VBottom 2
WINDOW 3 32 32 VTop 2
SYMATTR InstName C8
SYMATTR Value 22µ
SYMATTR SpiceLine Rser=0 Lser=0 mfg="Murata" pn="GCM32ER71C226ME19" type="X7R"
SYMBOL ind 176 -1024 M270
WINDOW 0 32 56 VTop 2
WINDOW 3 5 56 VBottom 2
SYMATTR InstName L6
SYMATTR Value 15µ
SYMATTR SpiceLine Ipk=2.8 Rser=109m Rpar=1.413K Cpar=0 mfg="Coilcraft" pn="XAL4040-153"
SYMBOL ind 48 -880 R270
WINDOW 0 32 56 VTop 2
WINDOW 3 5 56 VBottom 2
SYMATTR InstName L7
SYMATTR Value 33µ
SYMATTR SpiceLine Ipk=1.2 Rser=223.6m Rpar=3.109K Cpar=0 mfg="Coilcraft" pn="LPS6225-333"
SYMBOL ind 352 -1024 R270
WINDOW 0 32 56 VTop 2
WINDOW 3 5 56 VBottom 2
SYMATTR InstName L5
SYMATTR Value 22µ
SYMATTR SpiceLine Ipk=970m Rser=156.52m Rpar=2.072K Cpar=0 mfg="Coilcraft" pn="MOS6020-223"
SYMBOL ind 64 -464 R270
WINDOW 0 32 56 VTop 2
WINDOW 3 5 56 VBottom 2
SYMATTR InstName L2
SYMATTR Value 33µ
SYMATTR SpiceLine Ipk=1.2 Rser=223.6m Rpar=3.109K Cpar=0 mfg="Coilcraft" pn="LPS6225-333"
SYMBOL ind 432 -880 R270
WINDOW 0 32 56 VTop 2
WINDOW 3 5 56 VBottom 2
SYMATTR InstName L3
SYMATTR Value 33µ
SYMATTR SpiceLine Ipk=1.2 Rser=223.6m Rpar=3.109K Cpar=0 mfg="Coilcraft" pn="LPS6225-333"
SYMBOL ind 384 -464 R0
SYMATTR InstName L4
SYMATTR Value 33µ
SYMATTR SpiceLine Ipk=1.2 Rser=223.6m Rpar=3.109K Cpar=0 mfg="Coilcraft" pn="LPS6225-333"
TEXT 1264 -608 Left 2 !.tran 0 3m 2m
